1 'GENROU'  1            6.1          0.05         1.0          0.15
                3.38         0.0          1.575        1.512        0.291
                0.39         0.1733       0.0787       0.0       0.0      /
1 'TGOV1' 1 0.05 0.1 999 -999 0.2 10.0 0.0 /
